New line.
This is some file to be commited.
